    8
 
 C     1.749999     0.000000     0.592249  0.176735
 C    -1.749999     0.000000     0.592249  0.176735
 O     1.749999     0.000000    -0.595374 -0.212545
 O    -1.749999     0.000000    -0.595374 -0.212545
 H     1.749999     0.924901     1.170727  0.112487
 H    -1.749999     0.924901     1.170727  0.112487
 H     1.749999    -0.924901     1.170727  0.112487
 H    -1.749999    -0.924901     1.170727  0.112487
