8

C           1.75000         0.00000         0.59225
C          -1.75000         0.00000         0.59225
O           1.75000         0.00000        -0.59537
O          -1.75000         0.00000        -0.59537
H           1.75000         0.92490         1.17073
H          -1.75000         0.92490         1.17073
H           1.75000        -0.92490         1.17073
H          -1.75000        -0.92490         1.17073
