18

      C      -0.0000000000    -0.7178510000    -0.0000000000
      C      -1.2448800000    -1.4070900000    -0.0000000000
      C      -2.4402300000    -0.7093210000    -0.0000000000
      C      -2.4402300000     0.7093210000    -0.0000000000
      C      -1.2448800000     1.4070900000    -0.0000000000
      C       0.0000000000     0.7178510000     0.0000000000
      C       1.2448800000     1.4070900000     0.0000000000
      C       2.4402300000     0.7093210000     0.0000000000
      H      -1.2438000000    -2.5047300000    -0.0000000000
      H      -3.3926400000    -1.2530100000    -0.0000000000
      H      -3.3926400000     1.2530100000    -0.0000000000
      H      -1.2438000000     2.5047300000    -0.0000000000
      H       1.2438000000     2.5047300000     0.0000000000
      C       2.4402300000    -0.7093210000     0.0000000000
      C       1.2448800000    -1.4070900000     0.0000000000
      H       3.3926400000     1.2530100000     0.0000000000
      H       3.3926400000    -1.2530100000     0.0000000000
      H       1.2438000000    -2.5047300000     0.0000000000
