56

 C    3.96353000   -0.58029000   -0.00345000
 C    4.75669000    0.64859000   -0.12506000
 C    4.37694000    1.93747000   -0.26234000
 C    3.05567000    2.56907000   -0.18532000
 C    2.85792000    3.79725000   -0.83818000
 C    1.99329000    2.06873000    0.59156000
 C    1.65134000    4.47872000   -0.74441000
 C    0.78679000    2.74801000    0.68265000
 C    0.58029000    3.96353000    0.00345000
 C   -0.64859000    4.75669000    0.12506000
 C   -1.93747000    4.37694000    0.26234000
 C   -2.56907000    3.05567000    0.18532000
 C   -3.79725000    2.85792000    0.83818000
 C   -2.06873000    1.99329000   -0.59156000
 C   -4.47872000    1.65134000    0.74441000
 C   -2.74801000    0.78679000   -0.68265000
 C   -3.96353000    0.58029000   -0.00345000
 C   -4.75669000   -0.64859000   -0.12506000
 C   -4.37694000   -1.93747000   -0.26234000
 C   -3.05567000   -2.56907000   -0.18532000
 C   -2.85792000   -3.79725000   -0.83818000
 C   -1.99329000   -2.06873000    0.59156000
 C   -1.65134000   -4.47872000   -0.74441000
 C   -0.78679000   -2.74801000    0.68265000
 C   -0.58029000   -3.96353000    0.00345000
 C    0.64859000   -4.75669000    0.12506000
 C    1.93747000   -4.37694000    0.26234000
 C    2.56907000   -3.05567000    0.18532000
 C    3.79725000   -2.85792000    0.83818000
 C    2.06873000   -1.99329000   -0.59156000
 C    2.74801000   -0.78679000   -0.68265000
 C    4.47872000   -1.65134000    0.74441000
 H    5.84109000    0.47679000   -0.11812000
 H    5.19385000    2.65005000   -0.43526000
 H    3.67583000    4.22874000   -1.42440000
 H    2.13034000    1.14626000    1.16129000
 H    1.53169000    5.43798000   -1.25856000
 H   -0.00640000    2.34687000    1.31932000
 H   -0.47679000    5.84109000    0.11812000
 H   -2.65005000    5.19385000    0.43526000
 H   -4.22874000    3.67583000    1.42440000
 H   -1.14626000    2.13034000   -1.16129000
 H   -5.43798000    1.53169000    1.25856000
 H   -2.34687000   -0.00640000   -1.31932000
 H   -5.84109000   -0.47679000   -0.11812000
 H   -5.19385000   -2.65005000   -0.43526000
 H   -3.67583000   -4.22874000   -1.42440000
 H   -2.13034000   -1.14626000    1.16129000
 H   -1.53169000   -5.43798000   -1.25856000
 H    0.00640000   -2.34687000    1.31932000
 H    0.47679000   -5.84109000    0.11812000
 H    2.65005000   -5.19385000    0.43526000
 H    4.22874000   -3.67583000    1.42440000
 H    1.14626000   -2.13034000   -1.16129000
 H    2.34687000    0.00640000   -1.31932000
 H    5.43798000   -1.53169000    1.25856000
