56

 C    4.04518000   -0.57690000    0.05254000
 C    4.77563000    0.65246000    0.06902000
 C    4.39454000    1.97538000   -0.12725000
 C    3.12471000    2.63130000   -0.08422000
 C    2.97840000    3.95952000   -0.58201000
 C    1.95166000    2.08933000    0.52582000
 C    1.77237000    4.62907000   -0.56570000
 C    0.74914000    2.75665000    0.54131000
 C    0.57690000    4.04518000   -0.05254000
 C   -0.65246000    4.77563000   -0.06902000
 C   -1.97538000    4.39454000    0.12725000
 C   -2.63130000    3.12471000    0.08422000
 C   -3.95952000    2.97840000    0.58201000
 C   -2.08933000    1.95166000   -0.52582000
 C   -4.62907000    1.77237000    0.56570000
 C   -2.75665000    0.74914000   -0.54131000
 C   -4.04518000    0.57690000    0.05254000
 C   -4.77563000   -0.65246000    0.06902000
 C   -4.39454000   -1.97538000   -0.12725000
 C   -3.12471000   -2.63130000   -0.08422000
 C   -2.97840000   -3.95952000   -0.58201000
 C   -1.95166000   -2.08933000    0.52582000
 C   -1.77237000   -4.62907000   -0.56570000
 C   -0.74914000   -2.75665000    0.54131000
 C   -0.57690000   -4.04518000   -0.05254000
 C    0.65246000   -4.77563000   -0.06902000
 C    1.97538000   -4.39454000    0.12725000
 C    2.63130000   -3.12471000    0.08422000
 C    3.95952000   -2.97840000    0.58201000
 C    2.08933000   -1.95166000   -0.52582000
 C    2.75665000   -0.74914000   -0.54131000
 C    4.62907000   -1.77237000    0.56570000
 H    5.85711000    0.51481000    0.23007000
 H    5.23555000    2.66482000   -0.30594000
 H    3.86010000    4.45355000   -1.01210000
 H    2.01898000    1.12030000    1.02719000
 H    1.71675000    5.64372000   -0.98280000
 H   -0.09858000    2.29554000    1.05507000
 H   -0.51481000    5.85711000   -0.23007000
 H   -2.66482000    5.23555000    0.30594000
 H   -4.45355000    3.86010000    1.01210000
 H   -1.12030000    2.01898000   -1.02719000
 H   -5.64372000    1.71675000    0.98280000
 H   -2.29554000   -0.09858000   -1.05507000
 H   -5.85711000   -0.51481000    0.23007000
 H   -5.23555000   -2.66482000   -0.30594000
 H   -3.86010000   -4.45355000   -1.01210000
 H   -2.01898000   -1.12030000    1.02719000
 H   -1.71675000   -5.64372000   -0.98280000
 H    0.09858000   -2.29554000    1.05507000
 H    0.51481000   -5.85711000   -0.23007000
 H    2.66482000   -5.23555000    0.30594000
 H    4.45355000   -3.86010000    1.01210000
 H    1.12030000   -2.01898000   -1.02719000
 H    2.29554000    0.09858000   -1.05507000
 H    5.64372000   -1.71675000    0.98280000
